data/input/ligand_small.pdb
 OpenBabel07012511183D

 19 19  0  0  1  0  0  0  0  0999 V2000
    1.0710    0.1800    0.0050 C   0  0  0  0  0  2  0  0  0  0  0  0
    0.2200    0.0760    1.3120 C   0  0  0  0  0  2  0  0  0  0  0  0
   -1.3200   -1.1890   -0.1180 C   0  0  0  0  0  2  0  0  0  0  0  0
   -2.7880   -1.6930   -0.2580 C   0  0  1  0  0  3  0  0  0  0  0  0
   -3.6740   -0.5340   -0.3830 O   0  0  0  0  0  0  0  0  0  0  0  0
   -4.6100    1.5010    0.5720 C   0  0  0  0  0  1  0  0  0  0  0  0
   -2.9540   -2.5970   -1.5160 C   0  0  0  0  0  1  0  0  0  0  0  0
   -1.2130   -0.3040    1.0830 N   0  0  0  0  0  0  0  0  0  0  0  0
   -3.5960    0.3430    0.7690 C   0  0  2  0  0  3  0  0  0  0  0  0
   -2.1270    0.8690    0.9170 C   0  0  0  0  0  2  0  0  0  0  0  0
    1.3090    1.6680   -0.4500 C   0  0  0  0  0  2  0  0  0  0  0  0
    0.3600    2.0980   -1.6220 C   0  0  0  0  0  2  0  0  0  0  0  0
    0.1900    0.9700   -2.6980 C   0  0  0  0  0  2  0  0  0  0  0  0
   -1.2980    0.7950   -3.1730 C   0  0  0  0  0  2  0  0  0  0  0  0
   -2.2310    1.8930   -2.5910 C   0  0  0  0  0  2  0  0  0  0  0  0
   -3.6850    1.7340   -3.1020 C   0  0  0  0  0  2  0  0  0  0  0  0
   -3.8970    0.4280   -3.7330 N   0  0  0  0  0  2  0  0  0  0  0  0
   -5.1260   -0.2710   -3.5700 C   0  0  0  0  0  3  0  0  0  0  0  0
   -5.9580    0.1160   -2.7670 O   0  0  0  0  0  0  0  0  0  0  0  0
  1  2  1  0  0  0  0
  3  8  1  0  0  0  0
  4  7  1  6  0  0  0
  4  3  1  0  0  0  0
  5  4  1  0  0  0  0
  5  9  1  0  0  0  0
  8  2  1  0  0  0  0
  9  6  1  6  0  0  0
  9 10  1  0  0  0  0
 10  8  1  0  0  0  0
 11  1  1  0  0  0  0
 12 11  1  0  0  0  0
 13 12  1  0  0  0  0
 14 13  1  0  0  0  0
 14 15  1  0  0  0  0
 16 15  1  0  0  0  0
 17 18  1  0  0  0  0
 17 16  1  0  0  0  0
 18 19  2  0  0  0  0
M  END
>  <MODEL>
1

>  <REMARK>
 VINA RESULT:     0.000      0.000      0.000
 INTER + INTRA:          -1.445
 INTER:                   0.000
 INTRA:                  -1.445
 UNBOUND:                -1.445
  Name = data/input/ligand_small.pdb
  9 active torsions:
  status: ('A' for Active; 'I' for Inactive)
    1  A    between atoms: C9_6  and  C10_7
    2  A    between atoms: C9_6  and  N1_14
    3  A    between atoms: C10_7  and  C11_8
    4  A    between atoms: C11_8  and  C12_9
    5  A    between atoms: C12_9  and  C13_10
    6  A    between atoms: C13_10  and  C14_11
    7  A    between atoms: C14_11  and  C15_12
    8  A    between atoms: C15_12  and  C16_13
    9  A    between atoms: C16_13  and  N17_17
                            x       y       z     vdW  Elec       q    Type
                         _______ _______ _______ _____ _____    ______ ____

>  <TORSDO>
F 9

$$$$
